/*--------------------------------*- C++ -*----------------------------------*\
  =========                 |
  \\      /  F ield         | OpenFOAM: The Open Source CFD Toolbox
   \\    /   O peration     | Website:  https://openfoam.org
    \\  /    A nd           | Version:  10
     \\/     M anipulation  |
\*---------------------------------------------------------------------------*/
FoamFile
{
    version     2.0;
    format      ascii;
    class       dictionary;
    location    "system";
    object      fvSolution;
}
// * * * * * * * * * * * * * * * * * * * * * * * * * * * * * * * * * * * * * //

solvers
{
    p
    {
        solver          GAMG;
        smoother        GaussSeidel;
        tolerance       1e-11;
        relTol          0;
    }

    pFinal
    {
        $p;
        relTol          0;
    }

    "(U|k|epsilon)"
    {
        solver          smoothSolver;
        smoother        symGaussSeidel;
        tolerance       1e-11;
        relTol          0;
    }

    "(U|k|epsilon)Final"
    {
        $U;
        relTol          0;
    }
}

SIMPLE
{
    nNonOrthogonalCorrectors 0;

    residualControl
    {
        p               1e-10;
        U               1e-10;
    }
    pRefCell        0;
    pRefValue       0;
}

relaxationFactors
{
    fields
    {
        p               0.3;
    }

    equations
    {
        U               0.7;
    }
}

cache
{
    grad(U);
}

PISO
{
    nCorrectors     4;
    nNonOrthogonalCorrectors 0;
    pRefCell        0;
    pRefValue       0;
}

// ************************************************************************* //
